xflr5 v6.47

 Calculated polar for: MH532

 1 1 Reynolds number fixed          Mach number fixed         

 xtrf =   1.000 (top)        1.000 (bottom)
 Mach =   0.000     Re =     0.054 e 6     Ncrit =   9.000

  alpha     CL        CD       CDp       Cm    Top Xtr Bot Xtr   Cpmin    Chinge    XCp    
 ------- -------- --------- --------- -------- ------- ------- -------- --------- ---------
  -5.000  -0.4003   0.04919   0.04277  -0.0386  1.0000  0.1189  -2.3806   0.0000   0.1514
  -4.000  -0.3205   0.03363   0.02503  -0.0390  1.0000  0.0954  -2.5907   0.0000   0.1256
  -3.000  -0.2218   0.02325   0.01347  -0.0363  1.0000  0.1387  -2.5694   0.0000   0.0835
  -2.000  -0.1218   0.01655   0.00943  -0.0293  1.0000  1.0000  -1.9990   0.0000   0.0053
  -1.000  -0.0384   0.01729   0.00852  -0.0279  1.0000  1.0000  -1.1189   0.0000  -0.4821
   0.000   0.0413   0.01879   0.00911  -0.0266  1.0000  1.0000  -0.4730   0.0000   0.8946
   1.000   0.1256   0.02131   0.01110  -0.0280  0.9957  1.0000  -0.4151   0.0000   0.4707
   2.000   0.3366   0.02543   0.01504  -0.0512  0.9248  1.0000  -0.5934   0.0000   0.3998
   3.000   0.4946   0.02741   0.01734  -0.0608  0.8404  1.0000  -0.7882   0.0000   0.3699
   4.000   0.6596   0.02704   0.01767  -0.0655  0.7538  1.0000  -1.0823   0.0000   0.3459
   5.000   0.8006   0.02468   0.01611  -0.0609  0.6515  1.0000  -1.5444   0.0000   0.3219
   6.000   0.9025   0.02478   0.01639  -0.0522  0.5081  1.0000  -2.5139   0.0000   0.3027
   7.000   0.9854   0.02793   0.01923  -0.0435  0.3402  1.0000  -3.7285   0.0000   0.2879
   8.000   1.0499   0.03452   0.02559  -0.0348  0.1799  1.0000  -4.7418   0.0000   0.2757
   9.000   1.0991   0.04742   0.03934  -0.0266  0.1038  1.0000  -5.1405   0.0000   0.2657
  12.000   0.9141   0.12061   0.11477  -0.0355  0.1102  1.0000  -3.8093   0.0000   0.2780


